# omnetpp.ini
[General]
network =MM1
sim-time-limit = 100s
**.interArrivalTime=exponential(1)
**.serviceTime=exponential(1)